13
Properties=species:S:1:pos:R:3:forces:R:3 charge=0 spin=1 energy=-7332.848287467455 pbc="F F F"
C        1.76428492       0.62002492       0.44730656       0.00853400       0.01700066       0.00693419
O        0.36408343       0.50556267       0.42753422       0.01448149      -0.01849692      -0.01057281
C       -0.08398427      -0.62021740      -0.29589883      -0.01483151      -0.01361569      -0.00630831
C       -1.59297583      -0.50424500      -0.37943005      -0.01066632      -0.01249920      -0.01132230
O       -1.96705029       0.69269930      -1.02020002      -0.00238211       0.01282763      -0.00508723
H        2.00627039       1.51474437       1.02424229       0.02648059       0.02266019       0.01079815
H        2.23659062      -0.25149735       0.92769462      -0.03549319       0.00477221      -0.02133121
H        2.17646851       0.72398262      -0.56887811      -0.01462033      -0.01479873       0.01464165
H        0.34649140      -0.61419998      -1.31129003       0.00118612      -0.01295129       0.02966974
H        0.21424801      -1.55587495       0.20700330       0.02269613       0.02446417      -0.01165581
H       -1.99777045      -1.33116847      -0.97036102      -0.02017710      -0.01991298      -0.00628181
H       -2.01741197      -0.56864267       0.63524719       0.01169020       0.00604961      -0.00738712
H       -1.45126597       1.38805080      -0.58796482       0.00829444       0.00317589       0.01517525
13
Properties=species:S:1:pos:R:3:forces:R:3 charge=0 spin=1 energy=-7331.784097218487 pbc="F F F"
C        1.85716639       1.08533376       0.73540731      -0.02067815      -0.01258142       0.00647613
O        0.51540767       0.79957606       1.05221799      -0.01606671      -0.04452494       0.00080641
C       -0.69830605      -1.17736624      -1.09773311      -0.01146854       0.01089422       0.00905271
C       -1.91670330      -0.70934089      -0.44129740       0.02159071       0.00095523      -0.00625073
O       -1.07531657       0.19772056      -1.15324990      -0.00227421      -0.01423257      -0.00359060
H        2.00030351       2.11561518       0.37827796      -0.02734361       0.02337981      -0.00152803
H        2.44312276       0.96244745       1.65004447       0.00814909      -0.00547593       0.02083766
H        2.26891035       0.40318894      -0.02416384       0.00192033      -0.02805199      -0.02350909
H       -0.76066125      -1.70439556      -2.04705472      -0.00712936      -0.00704507      -0.02111823
H        0.17862206      -1.38483575      -0.48785162       0.02136363       0.02305487       0.03013750
H       -2.88521789      -0.88641332      -0.90380534      -0.01051512       0.00250205      -0.01715881
H       -1.91873745      -0.58137495       0.63914077       0.02729237       0.02017149       0.02648099
H       -0.01229350       0.88131281       0.23913023       0.02880214       0.03508748      -0.01157566
